Version 4
SHEET 1 880 680
WIRE -352 112 -480 112
WIRE -240 112 -352 112
WIRE -144 112 -240 112
WIRE 160 112 112 112
WIRE 240 112 160 112
WIRE 400 112 320 112
WIRE 576 112 464 112
WIRE 576 128 576 112
WIRE 160 176 160 112
WIRE -240 208 -240 112
WIRE 576 272 576 208
WIRE -352 352 -352 192
WIRE -240 352 -240 272
WIRE -240 352 -352 352
WIRE -16 352 -16 208
WIRE -16 352 -240 352
WIRE 160 352 160 240
WIRE 160 352 -16 352
WIRE -16 384 -16 352
FLAG -16 384 0
FLAG 576 272 0
SYMBOL schottky 400 128 R270
WINDOW 0 32 32 VTop 2
WINDOW 3 0 32 VBottom 2
SYMATTR InstName D1
SYMATTR Value 1N5817
SYMBOL Vreg\\7805 -16 112 R0
SYMATTR InstName U1
SYMBOL cap 144 176 R0
SYMATTR InstName C1
SYMATTR Value 100n
SYMBOL cap -256 208 R0
SYMATTR InstName C2
SYMATTR Value 220n
SYMBOL voltage -352 96 R0
WINDOW 123 0 0 Left 0
WINDOW 39 0 0 Left 0
SYMATTR InstName V1
SYMATTR Value 9
SYMBOL res 560 112 R0
SYMATTR InstName R1
SYMATTR Value 100k
SYMBOL res 336 96 R90
WINDOW 0 0 56 VBottom 2
WINDOW 3 32 56 VTop 2
SYMATTR InstName R2
SYMATTR Value 1k
TEXT 240 400 Left 2 !.tran 1u 1m
